Микротайзер Microtizer MT3D | https://disk.yandex.ru/d/IcvIbQ9EOBYyXQ | Габариты: 0 х 0 х 0 см. Вес 0 кг | р.1; п; с.10; п.1 | Стомость доставки в основные города: мб когда-нибудь
Система гамма-визуализации DILON 6800 | https://disk.yandex.ru/d/fh791Cma1ko1fQ | Габариты: 0 х 0 х 0 см. Вес 0 кг | р.1; п; с.10; п.1 | Стомость доставки в основные города: мб когда-нибудь
Флюидизационная кровать LI-7 с принадлежностями + РУ | https://disk.yandex.ru/d/2tHRfhoGRZ1nmA | Габариты: 0 х 0 х 0 см. Вес 0 кг | р.1; п; с.10; п.1 | Стомость доставки в основные города: мб когда-нибудь
--polka--
Отсос эндоскопический POWER CARRY, вариант исполнения CPS-2800 | https://disk.yandex.ru/d/NO-HvlmgQ6xjSw | Габариты: 0 х 0 х 0 см. Вес 0 кг | р.1; п; с.10; п.1 | Стомость доставки в основные города: мб когда-нибудь
--polka--
Тележка транспортная с поворотными колесами TI 401 | https://disk.yandex.ru/d/M3XoAqbv9P5MVQ | Габариты: 0 х 0 х 0 см. Вес 0 кг | р.1; ц; с.9; п.2 | Стомость доставки в основные города: мб когда-нибудь
--end--